*Heading
** Job name: Static Model name: Model-1
** Generated by: Abaqus/CAE Student Edition 2021
*Preprint, echo=NO, model=NO, history=NO, contact=NO
**
** PARTS
**
*Part, name=Dam_foundation
*Node
      1,  -28.5125008,         -47.
      2,   65.4875031,         -47.
      3,   65.4875031,           0.
      4,   36.9749985,           0.
      5,   12.6000004,           0.
      6,           0.,           0.
      7,  -28.5125008,           0.
      8,   12.6000004,         32.5
      9,   12.6000004,          47.
     10,           0.,          47.
     11,           0.,          44.
     12,  -23.5651321,         -47.
     13,  -18.6177635,         -47.
     14,  -13.6703949,         -47.
     15,  -8.72302628,         -47.
     16,  -3.77565789,         -47.
     17,   1.17171049,         -47.
     18,   6.11907911,         -47.
     19,   11.0664473,         -47.
     20,   16.0138149,         -47.
** ... 273 like lines cut
*Element, type=CPE3
  1, 149, 112, 147
  2, 175, 172, 131
  3,  95,  94,  52
  4, 214, 170, 125
  5, 231, 181, 215
  6, 116, 115,  14
  7,  90,  87,   6
  8, 104, 103,  16
  9, 105, 104,  17
 10,  89,  47,  88
 11, 130,  88, 129
 12, 108, 107,  20
 13, 132,  89, 130
 14, 101, 100,  44
 15, 110, 109,  22
 16,  97,  96,   4
 17, 248, 219, 242
 18, 111,  25, 102
 19, 112, 102,  26
 20, 217, 198, 114
** ... 491 like lines cut
*Nset, nset=Concrete_1
   5,   6,   8,   9,  10,  11,  47,  48,  62,  63,  64,  65,  66,  67,  75,  76
  77,  78,  79,  80,  81,  82,  83,  84,  85,  86, 276, 277, 278, 279, 280, 281
 282, 283, 284, 285, 286, 287, 288, 289, 290, 291, 292, 293
*Elset, elset=Concrete_1, generate
 452,  511,    1
*Nset, nset=Concrete_2
   4,   5,   8,  43,  44,  45,  46,  62,  63,  64,  65,  66,  67,  68,  69,  70
  71,  72,  73,  74, 265, 266, 267, 268, 269, 270, 271, 272, 273, 274, 275
*Elset, elset=Concrete_2, generate
 412,  451,    1
*Nset, nset=Rock
   1,   2,   3,   4,   5,   6,   7,  12,  13,  14,  15,  16,  17,  18,  19,  20
  21,  22,  23,  24,  25,  26,  27,  28,  29,  30,  31,  32,  33,  34,  35,  36
  37,  38,  39,  40,  41,  42,  43,  44,  45,  46,  47,  48,  49,  50,  51,  52
  53,  54,  55,  56,  57,  58,  59,  60,  61,  87,  88,  89,  90,  91,  92,  93
  94,  95,  96,  97,  98,  99, 100, 101, 102, 103, 104, 105, 106, 107, 108, 109
 110, 111, 112, 113, 114, 115, 116, 117, 118, 119, 120, 121, 122, 123, 124, 125
 126, 127, 128, 129, 130, 131, 132, 133, 134, 135, 136, 137, 138, 139, 140, 141
 142, 143, 144, 145, 146, 147, 148, 149, 150, 151, 152, 153, 154, 155, 156, 157
 158, 159, 160, 161, 162, 163, 164, 165, 166, 167, 168, 169, 170, 171, 172, 173
 174, 175, 176, 177, 178, 179, 180, 181, 182, 183, 184, 185, 186, 187, 188, 189
 190, 191, 192, 193, 194, 195, 196, 197, 198, 199, 200, 201, 202, 203, 204, 205
 206, 207, 208, 209, 210, 211, 212, 213, 214, 215, 216, 217, 218, 219, 220, 221
 222, 223, 224, 225, 226, 227, 228, 229, 230, 231, 232, 233, 234, 235, 236, 237
 238, 239, 240, 241, 242, 243, 244, 245, 246, 247, 248, 249, 250, 251, 252, 253
 254, 255, 256, 257, 258, 259, 260, 261, 262, 263, 264
*Elset, elset=Rock, generate
   1,  411,    1
** Section: Rock
*Solid Section, elset=Rock, material=Rock
,
** Section: Concrete_2
*Solid Section, elset=Concrete_2, material=Concrete_2
,
** Section: Concrete_1
*Solid Section, elset=Concrete_1, material=Concrete_1
,
*End Part
**  
**
** ASSEMBLY
**
*Assembly, name=Assembly
**  
*Instance, name=Dam_foundation-1, part=Dam_foundation
*End Instance
**  
*Nset, nset=BC_Y, instance=Dam_foundation-1
  1,  2, 12, 13, 14, 15, 16, 17, 18, 19, 20, 21, 22, 23, 24, 25
 26, 27, 28, 29
*Elset, elset=BC_Y, instance=Dam_foundation-1
  23,  53,  55,  86,  87,  88,  89,  90,  92,  94,  96,  98, 100, 102, 104, 106
 108, 112, 113
*Nset, nset=Set-1, instance=Dam_foundation-1
  1,  2,  3,  7, 30, 31, 32, 33, 34, 35, 36, 37, 54, 55, 56, 57
 58, 59, 60, 61
*Elset, elset=Set-1, instance=Dam_foundation-1
  23,  32,  47,  49,  55,  72,  73, 107, 110, 118, 120, 122, 124, 127, 128, 130
 135, 200
*Elset, elset=_NFU_S2, internal, instance=Dam_foundation-1
 466, 496, 498, 500, 502, 504, 506, 508, 510
*Surface, type=ELEMENT, name=NFU
_NFU_S2, S2
*End Assembly
** 
** MATERIALS
** 
*Material, name=Concrete_1
*Density
2500.,
*Elastic
 3.25e+10, 0.14
*Material, name=Concrete_2
*Density
2500.,
*Elastic
 2.75e+10, 0.14
*Material, name=Rock
*Elastic
 1.7e+10, 0.14
** ----------------------------------------------------------------
** 
** STEP: Static
** 
*Step, name=Static, nlgeom=NO
*Static
1., 1., 1e-05, 1.
** 
** BOUNDARY CONDITIONS
** 
** Name: BC_X Type: Displacement/Rotation
*Boundary
Set-1, 1, 1
** Name: BC_Y Type: Displacement/Rotation
*Boundary
BC_Y, 2, 2
** 
** LOADS
** 
** Name: Gravity   Type: Gravity
*Dload
, GRAV, 9.8, 0., -1.
** Name: NFU   Type: Pressure Using Field: NFU
*Dload
Dam_foundation-1.466, P2, 407244.
Dam_foundation-1.496, P2, 23955.6
Dam_foundation-1.498, P2, 71866.7
Dam_foundation-1.500, P2, 359333.
Dam_foundation-1.502, P2, 311422.
Dam_foundation-1.504, P2, 263511.
Dam_foundation-1.506, P2, 215600.
Dam_foundation-1.508, P2, 167689.
Dam_foundation-1.510, P2, 119778.
** 
** OUTPUT REQUESTS
** 
*Restart, write, frequency=0
** 
** FIELD OUTPUT: F-Output-1
** 
*Output, field
*Node Output
U, 
*Element Output, directions=YES
E, S
** 
** HISTORY OUTPUT: H-Output-1
** 
*Output, history, variable=PRESELECT
*End Step
